:1qkt_ligand
                    3D
 Schrodinger Suite 2020-1.
 44 47  0  0  1  0            999 V2000
    0.8670   53.1380  165.0150 C   0  0  0  0  0  0
    2.2480   53.1920  164.7900 C   0  0  0  0  0  0
    3.0360   52.0260  164.9340 C   0  0  0  0  0  0
    4.3950   52.1060  164.7050 O   0  0  0  0  0  0
    2.4410   50.7930  165.3090 C   0  0  0  0  0  0
    1.0210   50.7210  165.5500 C   0  0  0  0  0  0
    0.3830   49.3850  165.9720 C   0  0  0  0  0  0
   -1.1480   49.4320  166.2430 C   0  0  0  0  0  0
   -1.8940   50.4480  165.3740 C   0  0  2  0  0  0
   -1.2990   51.8780  165.6350 C   0  0  1  0  0  0
    0.2190   51.9220  165.3920 C   0  0  0  0  0  0
   -2.0700   52.8890  164.7620 C   0  0  0  0  0  0
   -3.5920   52.8930  164.9630 C   0  0  0  0  0  0
   -4.2090   51.5020  164.7630 C   0  0  1  0  0  0
   -3.4470   50.4920  165.6850 C   0  0  1  0  0  0
   -4.3350   49.2580  165.5460 C   0  0  0  0  0  0
   -5.7850   49.8370  165.7130 C   0  0  0  0  0  0
   -5.6600   51.3340  165.3010 C   0  0  2  0  0  0
   -6.7310   51.6750  164.3560 O   0  0  0  0  0  0
   -4.1860   51.1040  163.2410 C   0  0  0  0  0  0
    0.3270   54.0640  164.9265 H   0  0  0  0  0  0
    2.6526   54.1617  164.5701 H   0  0  0  0  0  0
    4.6142   52.9155  164.2441 H   0  0  0  0  0  0
    3.0483   49.9092  165.4235 H   0  0  0  0  0  0
    0.9035   48.9646  166.8289 H   0  0  0  0  0  0
    0.5603   48.7015  165.1422 H   0  0  0  0  0  0
   -1.3017   49.7050  167.2880 H   0  0  0  0  0  0
   -1.5719   48.4345  166.1307 H   0  0  0  0  0  0
   -1.7340   50.1717  164.3331 H   0  0  0  0  0  0
   -1.4632   52.1468  166.6788 H   0  0  0  0  0  0
   -1.8534   52.6805  163.7139 H   0  0  0  0  0  0
   -1.7263   53.9035  164.9094 H   0  0  0  0  0  0
   -4.0573   53.6161  164.2920 H   0  0  0  0  0  0
   -3.8070   53.2422  165.9737 H   0  0  0  0  0  0
   -3.5431   50.8296  166.7198 H   0  0  0  0  0  0
   -4.1140   48.5126  166.3090 H   0  0  0  0  0  0
   -4.2010   48.7636  164.5842 H   0  0  0  0  0  0
   -6.1630   49.7361  166.7248 H   0  0  0  0  0  0
   -6.4720   49.2917  165.0649 H   0  0  0  0  0  0
   -5.7911   51.9471  166.1941 H   0  0  0  0  0  0
   -6.6124   52.5706  164.0795 H   0  0  0  0  0  0
   -4.7414   50.1922  163.0229 H   0  0  0  0  0  0
   -4.6420   51.8865  162.6339 H   0  0  0  0  0  0
   -3.1772   50.9668  162.8561 H   0  0  0  0  0  0
  1  2  2  0  0  0
  1 11  1  0  0  0
  1 21  1  0  0  0
  2  3  1  0  0  0
  2 22  1  0  0  0
  3  4  1  0  0  0
  3  5  2  0  0  0
  4 23  1  0  0  0
  5  6  1  0  0  0
  5 24  1  0  0  0
  6  7  1  0  0  0
  6 11  2  0  0  0
  7  8  1  0  0  0
  7 25  1  0  0  0
  7 26  1  0  0  0
  8  9  1  0  0  0
  8 27  1  0  0  0
  8 28  1  0  0  0
  9 10  1  0  0  0
  9 15  1  0  0  0
  9 29  1  0  0  0
 10 11  1  0  0  0
 10 12  1  0  0  0
 10 30  1  0  0  0
 12 13  1  0  0  0
 12 31  1  0  0  0
 12 32  1  0  0  0
 13 14  1  0  0  0
 13 33  1  0  0  0
 13 34  1  0  0  0
 14 15  1  0  0  0
 14 18  1  0  0  0
 14 20  1  0  0  0
 15 16  1  0  0  0
 15 35  1  0  0  0
 16 17  1  0  0  0
 16 36  1  0  0  0
 16 37  1  0  0  0
 17 18  1  0  0  0
 17 38  1  0  0  0
 17 39  1  0  0  0
 18 19  1  0  0  0
 18 40  1  0  0  0
 19 41  1  0  0  0
 20 42  1  0  0  0
 20 43  1  0  0  0
 20 44  1  0  0  0
M  END
> <s_pdb_PDB_ID>


> <s_pdb_PDB_CLASSIFICATION>
1QKT_PROTEIN

> <s_pdb_PDB_format_version>
3.0

> <b_ppw_prepared>
1

> <s_ppw_prepared_with_version>
2020-1

> <b_ppw_created_disulfur>
1

> <s_ppw_het_states>
eJxdkEsOgzAMRK8SsaYV5jOBXqXiBqi7rhB3b2KjPgGL6GkSPJ7ZG2te6V2+MY9Lm7q1TQWnDjSwBwdwBCdQYAZnEDfhJtyEm3ATbsJNuAk3uVvlM10E6+P2FMpphI68RvRIfRWG/4yK0YBRRvRwFRZ+mVwQL+RCRsguzDehlmDUeF3dhdqjUWm0aRQbnRr1Xoaegu4Ce8jTirTycCKtpvsMDycPV5RH9yyL7UebPt9ti3Ndjx8n3okE

> <r_ff_Potential_Energy-OPLS3e>
-494312.576187333

> <r_ff_RMS_Derivative-OPLS3e>
0.0495859894205137

> <b_ff_Minimization_Converged-OPLS3e>
1

> <r_i_Potential_Energy-OPLS_2005>
-13912.3604001864

> <r_i_RMS_Derivative-OPLS_2005>
0.0456267857258122

> <r_i_Max_Derivative-OPLS_2005>
1.65196732161185

> <r_i_Stretch_Energy-OPLS_2005>
28.098138372554

> <r_i_Bend_Energy-OPLS_2005>
410.176685584348

> <r_i_LJ-14_Energy-OPLS_2005>
705.848134133877

> <r_i_El-14_Energy-OPLS_2005>
-545.152247613539

> <r_i_Van_der_Waals_Energy-OPLS_2005>
-957.287353620523

> <r_i_Electrostatic_Energy-OPLS_2005>
-13780.5761835675

> <r_i_Dihedral_Energy-OPLS_2005>
226.53242652443

> <r_i_target_temperature>
298

> <s_user_Residue_ID>
_:1

$$$$
